@<TRIPOS>MOLECULE
MOL
    9     8     1     0     0
SMALL
bcc


@<TRIPOS>ATOM
      1 F1           0.4810    -0.7230     1.1230 f          1 MOL      -0.237
      2 F2           1.4750     0.8400    -0.0280 f          1 MOL      -0.237
      3 F3           0.4990    -0.8230    -1.0550 f          1 MOL      -0.237
      4 O1          -1.9760    -0.1090     0.0040 oh         1 MOL      -0.566
      5 C1          -0.8840     0.7970    -0.0410 c3         1 MOL       0.103
      6 C2           0.4050     0.0180    -0.0040 c3         1 MOL       0.581
      7 H1          -0.9580     1.4800     0.8110 h1         1 MOL       0.087
      8 H2          -0.9580     1.3810    -0.9620 h1         1 MOL       0.087
      9 H3          -1.8950    -0.6240     0.8250 ho         1 MOL       0.419
@<TRIPOS>BOND
     1     1     6 1   
     2     2     6 1   
     3     3     6 1   
     4     4     5 1   
     5     4     9 1   
     6     5     6 1   
     7     5     7 1   
     8     5     8 1   
@<TRIPOS>SUBSTRUCTURE
     1 MOL         1 TEMP              0 ****  ****    0 ROOT
